dayahead/artifacts/v18r2_aidc_forecast_magnitude_refreeze/V18R2_FORECAST_MAGNITUDE_WATERFALL.csv
branch,stage,input_GPU_h,output_GPU_h,multiplier,loss_fraction,reason
COMMON_CONTEXT,TRAINING_SOURCE_FLEX_ARRIVAL_7DAY_EQUIVALENT,19112.270255555555,19112.270255555555,1.0,0.0,"training mean x seven; context, not April attrition"
OLD,SEMANTIC_TO_OLD_MODELABLE,19112.270255555555,17610.312766666662,0.9214139676341013,0.07858603236589867,V1/U2 exact-uniform modelable filtering
OLD,FROZEN_APRIL_SLOTWISE_Q50_BEFORE_BETA,17610.312766666662,4976.275420508247,0.2825773446754162,0.7174226553245838,statistical/period difference plus marginal Q50 aggregation; not purely mechanical
OLD,BETA_AIDC,4976.275420508247,1244.0688551270619,0.25,0.75,legacy equivalent-footprint scaling applied to already-system-total W_F
OLD,RACK_SITE_DISTRIBUTION_AND_SCHEDULER,1244.0688551270619,1244.0688551270619,1.0,0.0,weights sum one; exact service parity
NEW,CAPACITY_NORMALIZED_CAUSAL_MODEL,19112.270255555555,8760.796666666665,0.45838597662776753,0.5416140233722324,training-only CV-selected April calendar/regime forecast
NEW,DAILY_TO_SLOT_TIER_RECONSTRUCTION,8760.796666666665,8760.796666666665,1.0,0.0,normalized shape and tier mixtures conserve mass exactly
NEW,C_MODEL_RESTORATION,8760.796666666665,8760.796666666665,1.0,0.0,C_MODEL=C_REF=528; no beta or hidden scale
